Circuit: *** SPICE deck for cell CSL_SF{sch} from library SourceFollower

Warning: toxe, toxp and dtox all given and toxe != toxp + dtox; dtox ignored.
Direct Newton iteration for .op point succeeded.

Date: Wed Aug 05 10:02:19 2020
Total elapsed time: 0.038 seconds.

tnom = 27
temp = 27
method = modified trap
totiter = 2086
traniter = 2082
tranpoints = 1042
accept = 1042
rejected = 0
matrix size = 15
fillins = 0
solver = Normal
Matrix Compiler1: 1.40 KB object code size  0.2/0.2/[0.1]
Matrix Compiler2: 1.44 KB object code size  0.1/0.2/[0.1]

