Circuit: *** SPICE deck for cell simpleSF{sch} from library SourceFollower

WARNING: Node B is floating.

Warning: toxe, toxp and dtox all given and toxe != toxp + dtox; dtox ignored.
Direct Newton iteration for .op point succeeded.

Date: Wed Aug 05 10:11:19 2020
Total elapsed time: 0.037 seconds.

tnom = 27
temp = 27
method = modified trap
totiter = 2106
traniter = 2099
tranpoints = 1046
accept = 1045
rejected = 1
matrix size = 10
fillins = 0
solver = Normal
Matrix Compiler1: 830 bytes object code size  0.2/0.1/[0.1]
Matrix Compiler2: 926 bytes object code size  0.1/0.2/[0.1]

