Circuit: *** SPICE deck for cell test{sch} from library SourceFollower

Warning: toxe, toxp and dtox all given and toxe != toxp + dtox; dtox ignored.

Date: Wed Aug 05 10:12:44 2020
Total elapsed time: 0.019 seconds.

tnom = 27
temp = 27
method = trap
totiter = 35
traniter = 0
tranpoints = 0
accept = 0
rejected = 0
matrix size = 15
fillins = 0
solver = Normal
Matrix Compiler1: 988 bytes object code size
Matrix Compiler2: 1.41 KB object code size
