Circuit: *** SPICE deck for cell degeneratedCG{sch} from library CommonGate

WARNING: Less than two connections to node OUT.  This node is used by MNMOS@0.
Warning: toxe, toxp and dtox all given and toxe != toxp + dtox; dtox ignored.
Direct Newton iteration for .op point succeeded.

Date: Tue Aug 04 16:50:17 2020
Total elapsed time: 0.070 seconds.

tnom = 27
temp = 27
method = modified trap
totiter = 2091
traniter = 2082
tranpoints = 1042
accept = 1042
rejected = 0
matrix size = 12
fillins = 1
solver = Normal
Matrix Compiler1: 1.28 KB object code size  0.4/0.3/[0.2]
Matrix Compiler2: off  [0.2]/0.3/0.3

