Circuit: *** SPICE deck for cell simpleCG{sch} from library CommonGate

WARNING: Less than two connections to node OUT.  This node is used by MNMOS@0.
Warning: toxe, toxp and dtox all given and toxe != toxp + dtox; dtox ignored.
Direct Newton iteration for .op point succeeded.

Date: Mon Aug 03 09:24:24 2020
Total elapsed time: 0.041 seconds.

tnom = 27
temp = 27
method = modified trap
totiter = 2091
traniter = 2082
tranpoints = 1042
accept = 1042
rejected = 0
matrix size = 11
fillins = 0
solver = Normal
Matrix Compiler1: 1.21 KB object code size  0.2/0.1/[0.1]
Matrix Compiler2: 1.01 KB object code size  0.1/0.1/[0.1]

