Circuit: *** SPICE deck for cell test{sch} from library CommonGate

Warning: toxe, toxp and dtox all given and toxe != toxp + dtox; dtox ignored.

Date: Tue Aug 04 16:32:03 2020
Total elapsed time: 0.038 seconds.

tnom = 27
temp = 27
method = trap
totiter = 245
traniter = 0
tranpoints = 0
accept = 0
rejected = 0
matrix size = 12
fillins = 0
solver = Normal
Matrix Compiler1: 884 bytes object code size  0.3/0.2/[0.1]
Matrix Compiler2: 1.05 KB object code size  0.2/0.3/[0.1]

