Circuit: *** SPICE deck for cell simpleCG{sch} from library CommonGate

Warning: toxe, toxp and dtox all given and toxe != toxp + dtox; dtox ignored.

Date: Fri Aug 07 15:44:14 2020
Total elapsed time: 0.019 seconds.

tnom = 27
temp = 27
method = trap
totiter = 249
traniter = 0
tranpoints = 0
accept = 0
rejected = 0
matrix size = 11
fillins = 0
solver = Normal
Matrix Compiler1: 592 bytes object code size  0.2/0.1/[0.1]
Matrix Compiler2: 1013 bytes object code size  0.2/0.2/[0.1]

