Circuit: *** SPICE deck for cell simpleCS{sch} from library Common_Source

Warning: toxe, toxp and dtox all given and toxe != toxp + dtox; dtox ignored.
Direct Newton iteration for .op point succeeded.

Date: Sat Aug 01 15:48:08 2020
Total elapsed time: 0.094 seconds.

tnom = 27
temp = 27
method = modified trap
totiter = 2087
traniter = 2082
tranpoints = 1042
accept = 1042
rejected = 0
matrix size = 10
fillins = 0
solver = Normal
Matrix Compiler1: 758 bytes object code size  0.2/0.2/[0.1]
Matrix Compiler2: 830 bytes object code size  0.1/0.2/[0.1]

