Circuit: *** SPICE deck for cell test{sch} from library Common_Source


Date: Sat Aug 01 14:19:47 2020
Total elapsed time: 0.018 seconds.

tnom = 27
temp = 27
method = trap
totiter = 93
traniter = 0
tranpoints = 0
accept = 0
rejected = 0
matrix size = 9
fillins = 0
solver = Normal
Matrix Compiler1: 492 bytes object code size
Matrix Compiler2: 735 bytes object code size
