Circuit: *** SPICE deck for cell simple_CS{sch} from library CurrentMirror

Direct Newton iteration for .op point succeeded.
.step rres=100
.step rres=200
.step rres=300
.step rres=400
.step rres=500
.step rres=600
.step rres=700
.step rres=800
.step rres=900
.step rres=1000
.step rres=1100
.step rres=1200
.step rres=1300
.step rres=1400
.step rres=1500
.step rres=1600
.step rres=1700
.step rres=1800
.step rres=1900
.step rres=2000
.step rres=2100
.step rres=2200
.step rres=2300
.step rres=2400
.step rres=2500
.step rres=2600
.step rres=2700
.step rres=2800
.step rres=2900
.step rres=3000
.step rres=3100
.step rres=3200
.step rres=3300
.step rres=3400
.step rres=3500
.step rres=3600
.step rres=3700
.step rres=3800
.step rres=3900
.step rres=4000
.step rres=4100
.step rres=4200
.step rres=4300
.step rres=4400
.step rres=4500
.step rres=4600
.step rres=4700
.step rres=4800
.step rres=4900
.step rres=5000
.step rres=5100
.step rres=5200
.step rres=5300
.step rres=5400
.step rres=5500
.step rres=5600
.step rres=5700
.step rres=5800
.step rres=5900
.step rres=6000
.step rres=6100
.step rres=6200
.step rres=6300
.step rres=6400
.step rres=6500
.step rres=6600
.step rres=6700
.step rres=6800
.step rres=6900
.step rres=7000
.step rres=7100
.step rres=7200
.step rres=7300
.step rres=7400
.step rres=7500
.step rres=7600
.step rres=7700
.step rres=7800
.step rres=7900
.step rres=8000
.step rres=8100
.step rres=8200
.step rres=8300
.step rres=8400
.step rres=8500
.step rres=8600
.step rres=8700
.step rres=8800
.step rres=8900
.step rres=9000
.step rres=9100
.step rres=9200
.step rres=9300
.step rres=9400
.step rres=9500
.step rres=9600
.step rres=9700
.step rres=9800
.step rres=9900
.step rres=10000
.step rres=10100
.step rres=10200
.step rres=10300
.step rres=10400
.step rres=10500
.step rres=10600
.step rres=10700
.step rres=10800
.step rres=10900
.step rres=11000
.step rres=11100
.step rres=11200
.step rres=11300
.step rres=11400
.step rres=11500
.step rres=11600
.step rres=11700
.step rres=11800
.step rres=11900
.step rres=12000
.step rres=12100
.step rres=12200
.step rres=12300
.step rres=12400
.step rres=12500
.step rres=12600
.step rres=12700
.step rres=12800
.step rres=12900
.step rres=13000
.step rres=13100
.step rres=13200
.step rres=13300
.step rres=13400
.step rres=13500
.step rres=13600
.step rres=13700
.step rres=13800
.step rres=13900
.step rres=14000
.step rres=14100
.step rres=14200
.step rres=14300
.step rres=14400
.step rres=14500
.step rres=14600
.step rres=14700
.step rres=14800
.step rres=14900
.step rres=15000
.step rres=15100
.step rres=15200
.step rres=15300
.step rres=15400
.step rres=15500
.step rres=15600
.step rres=15700
.step rres=15800
.step rres=15900
.step rres=16000
.step rres=16100
.step rres=16200
.step rres=16300
.step rres=16400
.step rres=16500
.step rres=16600
.step rres=16700
.step rres=16800
.step rres=16900
.step rres=17000
.step rres=17100
.step rres=17200
.step rres=17300
.step rres=17400
.step rres=17500
.step rres=17600
.step rres=17700
.step rres=17800
.step rres=17900
.step rres=18000
.step rres=18100
.step rres=18200
.step rres=18300
.step rres=18400
.step rres=18500
.step rres=18600
.step rres=18700
.step rres=18800
.step rres=18900
.step rres=19000
.step rres=19100
.step rres=19200
.step rres=19300
.step rres=19400
.step rres=19500
.step rres=19600
.step rres=19700
.step rres=19800
.step rres=19900
.step rres=20000
.step rres=20100
.step rres=20200
.step rres=20300
.step rres=20400
.step rres=20500
.step rres=20600
.step rres=20700
.step rres=20800
.step rres=20900
.step rres=21000
.step rres=21100
.step rres=21200
.step rres=21300
.step rres=21400
.step rres=21500
.step rres=21600
.step rres=21700
.step rres=21800
.step rres=21900
.step rres=22000
.step rres=22100
.step rres=22200
.step rres=22300
.step rres=22400
.step rres=22500
.step rres=22600
.step rres=22700
.step rres=22800
.step rres=22900
.step rres=23000
.step rres=23100
.step rres=23200
.step rres=23300
.step rres=23400
.step rres=23500
.step rres=23600
.step rres=23700
.step rres=23800
.step rres=23900
.step rres=24000
.step rres=24100
.step rres=24200
.step rres=24300
.step rres=24400
.step rres=24500
.step rres=24600
.step rres=24700
.step rres=24800
.step rres=24900
.step rres=25000
.step rres=25100
.step rres=25200
.step rres=25300
.step rres=25400
.step rres=25500
.step rres=25600
.step rres=25700
.step rres=25800
.step rres=25900
.step rres=26000
.step rres=26100
.step rres=26200
.step rres=26300
.step rres=26400
.step rres=26500
.step rres=26600
.step rres=26700
.step rres=26800
.step rres=26900
.step rres=27000
.step rres=27100
.step rres=27200
.step rres=27300
.step rres=27400
.step rres=27500
.step rres=27600
.step rres=27700
.step rres=27800
.step rres=27900
.step rres=28000
.step rres=28100
.step rres=28200
.step rres=28300
.step rres=28400
.step rres=28500
.step rres=28600
.step rres=28700
.step rres=28800
.step rres=28900
.step rres=29000
.step rres=29100
.step rres=29200
.step rres=29300
.step rres=29400
.step rres=29500
.step rres=29600
.step rres=29700
.step rres=29800
.step rres=29900
.step rres=30000
.step rres=30100
.step rres=30200
.step rres=30300
.step rres=30400
.step rres=30500
.step rres=30600
.step rres=30700
.step rres=30800
.step rres=30900
.step rres=31000
.step rres=31100
.step rres=31200
.step rres=31300
.step rres=31400
.step rres=31500
.step rres=31600
.step rres=31700
.step rres=31800
.step rres=31900
.step rres=32000
.step rres=32100
.step rres=32200
.step rres=32300
.step rres=32400
.step rres=32500
.step rres=32600
.step rres=32700
.step rres=32800
.step rres=32900
.step rres=33000
.step rres=33100
.step rres=33200
.step rres=33300
.step rres=33400
.step rres=33500
.step rres=33600
.step rres=33700
.step rres=33800
.step rres=33900
.step rres=34000
.step rres=34100
.step rres=34200
.step rres=34300
.step rres=34400
.step rres=34500
.step rres=34600
.step rres=34700
.step rres=34800
.step rres=34900
.step rres=35000
.step rres=35100
.step rres=35200
.step rres=35300
.step rres=35400
.step rres=35500
.step rres=35600
.step rres=35700
.step rres=35800
.step rres=35900
.step rres=36000
.step rres=36100
.step rres=36200
.step rres=36300
.step rres=36400
.step rres=36500
.step rres=36600
.step rres=36700
.step rres=36800
.step rres=36900
.step rres=37000
.step rres=37100
.step rres=37200
.step rres=37300
.step rres=37400
.step rres=37500
.step rres=37600
.step rres=37700
.step rres=37800
.step rres=37900
.step rres=38000
.step rres=38100
.step rres=38200
.step rres=38300
.step rres=38400
.step rres=38500
.step rres=38600
.step rres=38700
.step rres=38800
.step rres=38900
.step rres=39000
.step rres=39100
.step rres=39200
.step rres=39300
.step rres=39400
.step rres=39500
.step rres=39600
.step rres=39700
.step rres=39800
.step rres=39900
.step rres=40000
.step rres=40100
.step rres=40200
.step rres=40300
.step rres=40400
.step rres=40500
.step rres=40600
.step rres=40700
.step rres=40800
.step rres=40900
.step rres=41000
.step rres=41100
.step rres=41200
.step rres=41300
.step rres=41400
.step rres=41500
.step rres=41600
.step rres=41700
.step rres=41800
.step rres=41900
.step rres=42000
.step rres=42100
.step rres=42200
.step rres=42300
.step rres=42400
.step rres=42500
.step rres=42600
.step rres=42700
.step rres=42800
.step rres=42900
.step rres=43000
.step rres=43100
.step rres=43200
.step rres=43300
.step rres=43400
.step rres=43500
.step rres=43600
.step rres=43700
.step rres=43800
.step rres=43900
.step rres=44000
.step rres=44100
.step rres=44200
.step rres=44300
.step rres=44400
.step rres=44500
.step rres=44600
.step rres=44700
.step rres=44800
.step rres=44900
.step rres=45000
.step rres=45100
.step rres=45200
.step rres=45300
.step rres=45400
.step rres=45500
.step rres=45600
.step rres=45700
.step rres=45800
.step rres=45900
.step rres=46000
.step rres=46100
.step rres=46200
.step rres=46300
.step rres=46400
.step rres=46500
.step rres=46600
.step rres=46700
.step rres=46800
.step rres=46900
.step rres=47000
.step rres=47100
.step rres=47200
.step rres=47300
.step rres=47400
.step rres=47500
.step rres=47600
.step rres=47700
.step rres=47800
.step rres=47900
.step rres=48000
.step rres=48100
.step rres=48200
.step rres=48300
.step rres=48400
.step rres=48500
.step rres=48600
.step rres=48700
.step rres=48800
.step rres=48900
.step rres=49000
.step rres=49100
.step rres=49200
.step rres=49300
.step rres=49400
.step rres=49500
.step rres=49600
.step rres=49700
.step rres=49800
.step rres=49900
.step rres=50000
.step rres=50100
.step rres=50200
.step rres=50300
.step rres=50400
.step rres=50500
.step rres=50600
.step rres=50700
.step rres=50800
.step rres=50900
.step rres=51000
.step rres=51100
.step rres=51200
.step rres=51300
.step rres=51400
.step rres=51500
.step rres=51600
.step rres=51700
.step rres=51800
.step rres=51900
.step rres=52000
.step rres=52100
.step rres=52200
.step rres=52300
.step rres=52400
.step rres=52500
.step rres=52600
.step rres=52700
.step rres=52800
.step rres=52900
.step rres=53000
.step rres=53100
.step rres=53200
.step rres=53300
.step rres=53400
.step rres=53500
.step rres=53600
.step rres=53700
.step rres=53800
.step rres=53900
.step rres=54000
.step rres=54100
.step rres=54200
.step rres=54300
.step rres=54400
.step rres=54500
.step rres=54600
.step rres=54700
.step rres=54800
.step rres=54900
.step rres=55000
.step rres=55100
.step rres=55200
.step rres=55300
.step rres=55400
.step rres=55500
.step rres=55600
.step rres=55700
.step rres=55800
.step rres=55900
.step rres=56000
.step rres=56100
.step rres=56200
.step rres=56300
.step rres=56400
.step rres=56500
.step rres=56600
.step rres=56700
.step rres=56800
.step rres=56900
.step rres=57000
.step rres=57100
.step rres=57200
.step rres=57300
.step rres=57400
.step rres=57500
.step rres=57600
.step rres=57700
.step rres=57800
.step rres=57900
.step rres=58000
.step rres=58100
.step rres=58200
.step rres=58300
.step rres=58400
.step rres=58500
.step rres=58600
.step rres=58700
.step rres=58800
.step rres=58900
.step rres=59000
.step rres=59100
.step rres=59200
.step rres=59300
.step rres=59400
.step rres=59500
.step rres=59600
.step rres=59700
.step rres=59800
.step rres=59900
.step rres=60000
.step rres=60100
.step rres=60200
.step rres=60300
.step rres=60400
.step rres=60500
.step rres=60600
.step rres=60700
.step rres=60800
.step rres=60900
.step rres=61000
.step rres=61100
.step rres=61200
.step rres=61300
.step rres=61400
.step rres=61500
.step rres=61600
.step rres=61700
.step rres=61800
.step rres=61900
.step rres=62000
.step rres=62100
.step rres=62200
.step rres=62300
.step rres=62400
.step rres=62500
.step rres=62600
.step rres=62700
.step rres=62800
.step rres=62900
.step rres=63000
.step rres=63100
.step rres=63200
.step rres=63300
.step rres=63400
.step rres=63500
.step rres=63600
.step rres=63700
.step rres=63800
.step rres=63900
.step rres=64000
.step rres=64100
.step rres=64200
.step rres=64300
.step rres=64400
.step rres=64500
.step rres=64600
.step rres=64700
.step rres=64800
.step rres=64900
.step rres=65000
.step rres=65100
.step rres=65200
.step rres=65300
.step rres=65400
.step rres=65500
.step rres=65600
.step rres=65700
.step rres=65800
.step rres=65900
.step rres=66000
.step rres=66100
.step rres=66200
.step rres=66300
.step rres=66400
.step rres=66500
.step rres=66600
.step rres=66700
.step rres=66800
.step rres=66900
.step rres=67000
.step rres=67100
.step rres=67200
.step rres=67300
.step rres=67400
.step rres=67500
.step rres=67600
.step rres=67700
.step rres=67800
.step rres=67900
.step rres=68000
.step rres=68100
.step rres=68200
.step rres=68300
.step rres=68400
.step rres=68500
.step rres=68600
.step rres=68700
.step rres=68800
.step rres=68900
.step rres=69000
.step rres=69100
.step rres=69200
.step rres=69300
.step rres=69400
.step rres=69500
.step rres=69600
.step rres=69700
.step rres=69800
.step rres=69900
.step rres=70000
.step rres=70100
.step rres=70200
.step rres=70300
.step rres=70400
.step rres=70500
.step rres=70600
.step rres=70700
.step rres=70800
.step rres=70900
.step rres=71000
.step rres=71100
.step rres=71200
.step rres=71300
.step rres=71400
.step rres=71500
.step rres=71600
.step rres=71700
.step rres=71800
.step rres=71900
.step rres=72000
.step rres=72100
.step rres=72200
.step rres=72300
.step rres=72400
.step rres=72500
.step rres=72600
.step rres=72700
.step rres=72800
.step rres=72900
.step rres=73000
.step rres=73100
.step rres=73200
.step rres=73300
.step rres=73400
.step rres=73500
.step rres=73600
.step rres=73700
.step rres=73800
.step rres=73900
.step rres=74000
.step rres=74100
.step rres=74200
.step rres=74300
.step rres=74400
.step rres=74500
.step rres=74600
.step rres=74700
.step rres=74800
.step rres=74900
.step rres=75000
.step rres=75100
.step rres=75200
.step rres=75300
.step rres=75400
.step rres=75500
.step rres=75600
.step rres=75700
.step rres=75800
.step rres=75900
.step rres=76000
.step rres=76100
.step rres=76200
.step rres=76300
.step rres=76400
.step rres=76500
.step rres=76600
.step rres=76700
.step rres=76800
.step rres=76900
.step rres=77000
.step rres=77100
.step rres=77200
.step rres=77300
.step rres=77400
.step rres=77500
.step rres=77600
.step rres=77700
.step rres=77800
.step rres=77900
.step rres=78000
.step rres=78100
.step rres=78200
.step rres=78300
.step rres=78400
.step rres=78500
.step rres=78600
.step rres=78700
.step rres=78800
.step rres=78900
.step rres=79000
.step rres=79100
.step rres=79200
.step rres=79300
.step rres=79400
.step rres=79500
.step rres=79600
.step rres=79700
.step rres=79800
.step rres=79900
.step rres=80000
.step rres=80100
.step rres=80200
.step rres=80300
.step rres=80400
.step rres=80500
.step rres=80600
.step rres=80700
.step rres=80800
.step rres=80900
.step rres=81000
.step rres=81100
.step rres=81200
.step rres=81300
.step rres=81400
.step rres=81500
.step rres=81600
.step rres=81700
.step rres=81800
.step rres=81900
.step rres=82000
.step rres=82100
.step rres=82200
.step rres=82300
.step rres=82400
.step rres=82500
.step rres=82600
.step rres=82700
.step rres=82800
.step rres=82900
.step rres=83000
.step rres=83100
.step rres=83200
.step rres=83300
.step rres=83400
.step rres=83500
.step rres=83600
.step rres=83700
.step rres=83800
.step rres=83900
.step rres=84000
.step rres=84100
.step rres=84200
.step rres=84300
.step rres=84400
.step rres=84500
.step rres=84600
.step rres=84700
.step rres=84800
.step rres=84900
.step rres=85000
.step rres=85100
.step rres=85200
.step rres=85300
.step rres=85400
.step rres=85500
.step rres=85600
.step rres=85700
.step rres=85800
.step rres=85900
.step rres=86000
.step rres=86100
.step rres=86200
.step rres=86300
.step rres=86400
.step rres=86500
.step rres=86600
.step rres=86700
.step rres=86800
.step rres=86900
.step rres=87000
.step rres=87100
.step rres=87200
.step rres=87300
.step rres=87400
.step rres=87500
.step rres=87600
.step rres=87700
.step rres=87800
.step rres=87900
.step rres=88000
.step rres=88100
.step rres=88200
.step rres=88300
.step rres=88400
.step rres=88500
.step rres=88600
.step rres=88700
.step rres=88800
.step rres=88900
.step rres=89000
.step rres=89100
.step rres=89200
.step rres=89300
.step rres=89400
.step rres=89500
.step rres=89600
.step rres=89700
.step rres=89800
.step rres=89900
.step rres=90000
.step rres=90100
.step rres=90200
.step rres=90300
.step rres=90400
.step rres=90500
.step rres=90600
.step rres=90700
.step rres=90800
.step rres=90900
.step rres=91000
.step rres=91100
.step rres=91200
.step rres=91300
.step rres=91400
.step rres=91500
.step rres=91600
.step rres=91700
.step rres=91800
.step rres=91900
.step rres=92000
.step rres=92100
.step rres=92200
.step rres=92300
.step rres=92400
.step rres=92500
.step rres=92600
.step rres=92700
.step rres=92800
.step rres=92900
.step rres=93000
.step rres=93100
.step rres=93200
.step rres=93300
.step rres=93400
.step rres=93500
.step rres=93600
.step rres=93700
.step rres=93800
.step rres=93900
.step rres=94000
.step rres=94100
.step rres=94200
.step rres=94300
.step rres=94400
.step rres=94500
.step rres=94600
.step rres=94700
.step rres=94800
.step rres=94900
.step rres=95000
.step rres=95100
.step rres=95200
.step rres=95300
.step rres=95400
.step rres=95500
.step rres=95600
.step rres=95700
.step rres=95800
.step rres=95900
.step rres=96000
.step rres=96100
.step rres=96200
.step rres=96300
.step rres=96400
.step rres=96500
.step rres=96600
.step rres=96700
.step rres=96800
.step rres=96900
.step rres=97000
.step rres=97100
.step rres=97200
.step rres=97300
.step rres=97400
.step rres=97500
.step rres=97600
.step rres=97700
.step rres=97800
.step rres=97900
.step rres=98000
.step rres=98100
.step rres=98200
.step rres=98300
.step rres=98400
.step rres=98500
.step rres=98600
.step rres=98700
.step rres=98800
.step rres=98900
.step rres=99000
.step rres=99100
.step rres=99200
.step rres=99300
.step rres=99400
.step rres=99500
.step rres=99600
.step rres=99700
.step rres=99800
.step rres=99900
.step rres=100000


Measurement: iout
  step	i(r)
     1	0.00127883
     2	0.00124152
     3	0.00120581
     4	0.00117129
     5	0.00113741
     6	0.00110324
     7	0.00106703
     8	0.0010256
     9	0.000976137
    10	0.000921137
    11	0.000866176
    12	0.000814501
    13	0.000767125
    14	0.000724091
    15	0.000685096
    16	0.00064974
    17	0.00061762
    18	0.000588361
    19	0.000561629
    20	0.000537133
    21	0.000514619
    22	0.000493865
    23	0.000474681
    24	0.000456901
    25	0.000440379
    26	0.000424992
    27	0.000410626
    28	0.000397188
    29	0.00038459
    30	0.000372757
    31	0.000361623
    32	0.000351129
    33	0.000341221
    34	0.000331852
    35	0.000322981
    36	0.000314567
    37	0.000306578
    38	0.000298982
    39	0.000291751
    40	0.00028486
    41	0.000278285
    42	0.000272005
    43	0.000266001
    44	0.000260256
    45	0.000254752
    46	0.000249475
    47	0.000244411
    48	0.000239548
    49	0.000234875
    50	0.000230379
    51	0.000226052
    52	0.000221884
    53	0.000217866
    54	0.000213991
    55	0.000210251
    56	0.000206639
    57	0.000203149
    58	0.000199774
    59	0.00019651
    60	0.00019335
    61	0.00019029
    62	0.000187325
    63	0.000184451
    64	0.000181664
    65	0.000178959
    66	0.000176334
    67	0.000173785
    68	0.000171308
    69	0.0001689
    70	0.000166559
    71	0.000164282
    72	0.000162067
    73	0.00015991
    74	0.00015781
    75	0.000155764
    76	0.00015377
    77	0.000151827
    78	0.000149932
    79	0.000148084
    80	0.000146281
    81	0.000144521
    82	0.000142803
    83	0.000141126
    84	0.000139487
    85	0.000137886
    86	0.000136321
    87	0.000134791
    88	0.000133295
    89	0.000131832
    90	0.000130401
    91	0.000129
    92	0.000127629
    93	0.000126287
    94	0.000124973
    95	0.000123686
    96	0.000122425
    97	0.000121189
    98	0.000119979
    99	0.000118792
   100	0.000117628
   101	0.000116487
   102	0.000115368
   103	0.00011427
   104	0.000113193
   105	0.000112136
   106	0.000111098
   107	0.00011008
   108	0.00010908
   109	0.000108098
   110	0.000107133
   111	0.000106186
   112	0.000105255
   113	0.00010434
   114	0.000103441
   115	0.000102558
   116	0.000101689
   117	0.000100835
   118	9.9995e-005
   119	9.91691e-005
   120	9.83566e-005
   121	9.75574e-005
   122	9.6771e-005
   123	9.59972e-005
   124	9.52357e-005
   125	9.44862e-005
   126	9.37483e-005
   127	9.30219e-005
   128	9.23067e-005
   129	9.16023e-005
   130	9.09087e-005
   131	9.02254e-005
   132	8.95523e-005
   133	8.88892e-005
   134	8.82359e-005
   135	8.75921e-005
   136	8.69576e-005
   137	8.63322e-005
   138	8.57157e-005
   139	8.5108e-005
   140	8.45089e-005
   141	8.39181e-005
   142	8.33355e-005
   143	8.2761e-005
   144	8.21943e-005
   145	8.16353e-005
   146	8.10839e-005
   147	8.05398e-005
   148	8.0003e-005
   149	7.94733e-005
   150	7.89506e-005
   151	7.84347e-005
   152	7.79256e-005
   153	7.74229e-005
   154	7.69267e-005
   155	7.64369e-005
   156	7.59532e-005
   157	7.54756e-005
   158	7.5004e-005
   159	7.45382e-005
   160	7.40782e-005
   161	7.36239e-005
   162	7.3175e-005
   163	7.27316e-005
   164	7.22936e-005
   165	7.18607e-005
   166	7.14331e-005
   167	7.10105e-005
   168	7.05928e-005
   169	7.01801e-005
   170	6.97721e-005
   171	6.93689e-005
   172	6.89703e-005
   173	6.85762e-005
   174	6.81866e-005
   175	6.78015e-005
   176	6.74206e-005
   177	6.7044e-005
   178	6.66716e-005
   179	6.63033e-005
   180	6.5939e-005
   181	6.55788e-005
   182	6.52224e-005
   183	6.48699e-005
   184	6.45212e-005
   185	6.41762e-005
   186	6.38349e-005
   187	6.34971e-005
   188	6.3163e-005
   189	6.28323e-005
   190	6.25051e-005
   191	6.21813e-005
   192	6.18608e-005
   193	6.15436e-005
   194	6.12296e-005
   195	6.09188e-005
   196	6.06112e-005
   197	6.03066e-005
   198	6.00051e-005
   199	5.97066e-005
   200	5.94111e-005
   201	5.91184e-005
   202	5.88286e-005
   203	5.85417e-005
   204	5.82575e-005
   205	5.79761e-005
   206	5.76974e-005
   207	5.74214e-005
   208	5.71479e-005
   209	5.68771e-005
   210	5.66088e-005
   211	5.63431e-005
   212	5.60798e-005
   213	5.5819e-005
   214	5.55606e-005
   215	5.53046e-005
   216	5.50509e-005
   217	5.47995e-005
   218	5.45504e-005
   219	5.43036e-005
   220	5.4059e-005
   221	5.38166e-005
   222	5.35764e-005
   223	5.33383e-005
   224	5.31023e-005
   225	5.28683e-005
   226	5.26365e-005
   227	5.24066e-005
   228	5.21788e-005
   229	5.19529e-005
   230	5.1729e-005
   231	5.1507e-005
   232	5.12869e-005
   233	5.10686e-005
   234	5.08522e-005
   235	5.06377e-005
   236	5.04249e-005
   237	5.02139e-005
   238	5.00047e-005
   239	4.97972e-005
   240	4.95915e-005
   241	4.93874e-005
   242	4.9185e-005
   243	4.89842e-005
   244	4.87851e-005
   245	4.85876e-005
   246	4.83917e-005
   247	4.81974e-005
   248	4.80046e-005
   249	4.78133e-005
   250	4.76236e-005
   251	4.74353e-005
   252	4.72486e-005
   253	4.70633e-005
   254	4.68795e-005
   255	4.66971e-005
   256	4.65161e-005
   257	4.63365e-005
   258	4.61582e-005
   259	4.59814e-005
   260	4.58059e-005
   261	4.56317e-005
   262	4.54589e-005
   263	4.52873e-005
   264	4.51171e-005
   265	4.49481e-005
   266	4.47804e-005
   267	4.46139e-005
   268	4.44487e-005
   269	4.42847e-005
   270	4.41219e-005
   271	4.39602e-005
   272	4.37998e-005
   273	4.36405e-005
   274	4.34824e-005
   275	4.33254e-005
   276	4.31696e-005
   277	4.30148e-005
   278	4.28612e-005
   279	4.27087e-005
   280	4.25572e-005
   281	4.24069e-005
   282	4.22575e-005
   283	4.21093e-005
   284	4.1962e-005
   285	4.18158e-005
   286	4.16706e-005
   287	4.15264e-005
   288	4.13832e-005
   289	4.1241e-005
   290	4.10998e-005
   291	4.09595e-005
   292	4.08202e-005
   293	4.06818e-005
   294	4.05444e-005
   295	4.04078e-005
   296	4.02722e-005
   297	4.01376e-005
   298	4.00038e-005
   299	3.98709e-005
   300	3.97388e-005
   301	3.96077e-005
   302	3.94774e-005
   303	3.93479e-005
   304	3.92194e-005
   305	3.90916e-005
   306	3.89647e-005
   307	3.88386e-005
   308	3.87133e-005
   309	3.85888e-005
   310	3.84651e-005
   311	3.83422e-005
   312	3.82201e-005
   313	3.80988e-005
   314	3.79782e-005
   315	3.78584e-005
   316	3.77393e-005
   317	3.7621e-005
   318	3.75035e-005
   319	3.73866e-005
   320	3.72705e-005
   321	3.71551e-005
   322	3.70404e-005
   323	3.69265e-005
   324	3.68132e-005
   325	3.67006e-005
   326	3.65887e-005
   327	3.64775e-005
   328	3.6367e-005
   329	3.62571e-005
   330	3.61479e-005
   331	3.60393e-005
   332	3.59314e-005
   333	3.58242e-005
   334	3.57175e-005
   335	3.56115e-005
   336	3.55062e-005
   337	3.54014e-005
   338	3.52973e-005
   339	3.51938e-005
   340	3.50909e-005
   341	3.49886e-005
   342	3.48869e-005
   343	3.47857e-005
   344	3.46852e-005
   345	3.45852e-005
   346	3.44858e-005
   347	3.4387e-005
   348	3.42888e-005
   349	3.41911e-005
   350	3.4094e-005
   351	3.39974e-005
   352	3.39013e-005
   353	3.38058e-005
   354	3.37109e-005
   355	3.36164e-005
   356	3.35225e-005
   357	3.34291e-005
   358	3.33363e-005
   359	3.32439e-005
   360	3.31521e-005
   361	3.30608e-005
   362	3.29699e-005
   363	3.28796e-005
   364	3.27898e-005
   365	3.27004e-005
   366	3.26116e-005
   367	3.25232e-005
   368	3.24353e-005
   369	3.23478e-005
   370	3.22609e-005
   371	3.21744e-005
   372	3.20883e-005
   373	3.20028e-005
   374	3.19177e-005
   375	3.1833e-005
   376	3.17488e-005
   377	3.1665e-005
   378	3.15817e-005
   379	3.14988e-005
   380	3.14163e-005
   381	3.13343e-005
   382	3.12527e-005
   383	3.11715e-005
   384	3.10907e-005
   385	3.10104e-005
   386	3.09305e-005
   387	3.0851e-005
   388	3.07719e-005
   389	3.06931e-005
   390	3.06148e-005
   391	3.05369e-005
   392	3.04594e-005
   393	3.03823e-005
   394	3.03056e-005
   395	3.02293e-005
   396	3.01533e-005
   397	3.00777e-005
   398	3.00025e-005
   399	2.99277e-005
   400	2.98532e-005
   401	2.97792e-005
   402	2.97055e-005
   403	2.96321e-005
   404	2.95591e-005
   405	2.94865e-005
   406	2.94142e-005
   407	2.93423e-005
   408	2.92707e-005
   409	2.91995e-005
   410	2.91286e-005
   411	2.90581e-005
   412	2.89879e-005
   413	2.8918e-005
   414	2.88485e-005
   415	2.87793e-005
   416	2.87105e-005
   417	2.8642e-005
   418	2.85738e-005
   419	2.85059e-005
   420	2.84383e-005
   421	2.83711e-005
   422	2.83042e-005
   423	2.82376e-005
   424	2.81713e-005
   425	2.81053e-005
   426	2.80397e-005
   427	2.79743e-005
   428	2.79092e-005
   429	2.78445e-005
   430	2.778e-005
   431	2.77159e-005
   432	2.7652e-005
   433	2.75884e-005
   434	2.75251e-005
   435	2.74622e-005
   436	2.73995e-005
   437	2.7337e-005
   438	2.72749e-005
   439	2.72131e-005
   440	2.71515e-005
   441	2.70902e-005
   442	2.70292e-005
   443	2.69684e-005
   444	2.6908e-005
   445	2.68478e-005
   446	2.67878e-005
   447	2.67282e-005
   448	2.66688e-005
   449	2.66096e-005
   450	2.65508e-005
   451	2.64921e-005
   452	2.64338e-005
   453	2.63757e-005
   454	2.63178e-005
   455	2.62603e-005
   456	2.62029e-005
   457	2.61458e-005
   458	2.6089e-005
   459	2.60324e-005
   460	2.5976e-005
   461	2.59199e-005
   462	2.58641e-005
   463	2.58084e-005
   464	2.57531e-005
   465	2.56979e-005
   466	2.5643e-005
   467	2.55883e-005
   468	2.55339e-005
   469	2.54797e-005
   470	2.54257e-005
   471	2.53719e-005
   472	2.53184e-005
   473	2.52651e-005
   474	2.5212e-005
   475	2.51591e-005
   476	2.51065e-005
   477	2.50541e-005
   478	2.50019e-005
   479	2.49499e-005
   480	2.48981e-005
   481	2.48466e-005
   482	2.47953e-005
   483	2.47441e-005
   484	2.46932e-005
   485	2.46425e-005
   486	2.4592e-005
   487	2.45417e-005
   488	2.44916e-005
   489	2.44417e-005
   490	2.43921e-005
   491	2.43426e-005
   492	2.42933e-005
   493	2.42442e-005
   494	2.41953e-005
   495	2.41467e-005
   496	2.40982e-005
   497	2.40499e-005
   498	2.40018e-005
   499	2.39539e-005
   500	2.39061e-005
   501	2.38586e-005
   502	2.38113e-005
   503	2.37641e-005
   504	2.37171e-005
   505	2.36704e-005
   506	2.36238e-005
   507	2.35774e-005
   508	2.35311e-005
   509	2.34851e-005
   510	2.34392e-005
   511	2.33935e-005
   512	2.3348e-005
   513	2.33027e-005
   514	2.32575e-005
   515	2.32125e-005
   516	2.31677e-005
   517	2.3123e-005
   518	2.30786e-005
   519	2.30343e-005
   520	2.29901e-005
   521	2.29462e-005
   522	2.29024e-005
   523	2.28588e-005
   524	2.28153e-005
   525	2.2772e-005
   526	2.27289e-005
   527	2.26859e-005
   528	2.26431e-005
   529	2.26005e-005
   530	2.2558e-005
   531	2.25157e-005
   532	2.24735e-005
   533	2.24315e-005
   534	2.23896e-005
   535	2.23479e-005
   536	2.23064e-005
   537	2.2265e-005
   538	2.22238e-005
   539	2.21827e-005
   540	2.21418e-005
   541	2.2101e-005
   542	2.20604e-005
   543	2.20199e-005
   544	2.19795e-005
   545	2.19394e-005
   546	2.18993e-005
   547	2.18594e-005
   548	2.18197e-005
   549	2.17801e-005
   550	2.17406e-005
   551	2.17013e-005
   552	2.16621e-005
   553	2.16231e-005
   554	2.15842e-005
   555	2.15455e-005
   556	2.15068e-005
   557	2.14684e-005
   558	2.143e-005
   559	2.13918e-005
   560	2.13538e-005
   561	2.13158e-005
   562	2.1278e-005
   563	2.12404e-005
   564	2.12028e-005
   565	2.11654e-005
   566	2.11282e-005
   567	2.10911e-005
   568	2.1054e-005
   569	2.10172e-005
   570	2.09804e-005
   571	2.09438e-005
   572	2.09073e-005
   573	2.0871e-005
   574	2.08347e-005
   575	2.07986e-005
   576	2.07626e-005
   577	2.07268e-005
   578	2.0691e-005
   579	2.06554e-005
   580	2.06199e-005
   581	2.05846e-005
   582	2.05493e-005
   583	2.05142e-005
   584	2.04792e-005
   585	2.04443e-005
   586	2.04095e-005
   587	2.03749e-005
   588	2.03403e-005
   589	2.03059e-005
   590	2.02716e-005
   591	2.02374e-005
   592	2.02033e-005
   593	2.01694e-005
   594	2.01355e-005
   595	2.01018e-005
   596	2.00682e-005
   597	2.00347e-005
   598	2.00013e-005
   599	1.9968e-005
   600	1.99348e-005
   601	1.99018e-005
   602	1.98688e-005
   603	1.9836e-005
   604	1.98033e-005
   605	1.97706e-005
   606	1.97381e-005
   607	1.97057e-005
   608	1.96734e-005
   609	1.96412e-005
   610	1.96091e-005
   611	1.95771e-005
   612	1.95452e-005
   613	1.95134e-005
   614	1.94818e-005
   615	1.94502e-005
   616	1.94187e-005
   617	1.93873e-005
   618	1.93561e-005
   619	1.93249e-005
   620	1.92938e-005
   621	1.92629e-005
   622	1.9232e-005
   623	1.92012e-005
   624	1.91705e-005
   625	1.914e-005
   626	1.91095e-005
   627	1.90791e-005
   628	1.90488e-005
   629	1.90186e-005
   630	1.89885e-005
   631	1.89585e-005
   632	1.89286e-005
   633	1.88988e-005
   634	1.88691e-005
   635	1.88395e-005
   636	1.88099e-005
   637	1.87805e-005
   638	1.87512e-005
   639	1.87219e-005
   640	1.86927e-005
   641	1.86637e-005
   642	1.86347e-005
   643	1.86058e-005
   644	1.8577e-005
   645	1.85483e-005
   646	1.85197e-005
   647	1.84911e-005
   648	1.84627e-005
   649	1.84343e-005
   650	1.8406e-005
   651	1.83778e-005
   652	1.83497e-005
   653	1.83217e-005
   654	1.82938e-005
   655	1.82659e-005
   656	1.82382e-005
   657	1.82105e-005
   658	1.81829e-005
   659	1.81554e-005
   660	1.8128e-005
   661	1.81006e-005
   662	1.80734e-005
   663	1.80462e-005
   664	1.80191e-005
   665	1.79921e-005
   666	1.79651e-005
   667	1.79383e-005
   668	1.79115e-005
   669	1.78848e-005
   670	1.78582e-005
   671	1.78317e-005
   672	1.78052e-005
   673	1.77788e-005
   674	1.77525e-005
   675	1.77263e-005
   676	1.77002e-005
   677	1.76741e-005
   678	1.76481e-005
   679	1.76222e-005
   680	1.75963e-005
   681	1.75706e-005
   682	1.75449e-005
   683	1.75193e-005
   684	1.74937e-005
   685	1.74683e-005
   686	1.74429e-005
   687	1.74176e-005
   688	1.73923e-005
   689	1.73671e-005
   690	1.7342e-005
   691	1.7317e-005
   692	1.72921e-005
   693	1.72672e-005
   694	1.72424e-005
   695	1.72176e-005
   696	1.7193e-005
   697	1.71684e-005
   698	1.71438e-005
   699	1.71194e-005
   700	1.7095e-005
   701	1.70707e-005
   702	1.70464e-005
   703	1.70223e-005
   704	1.69981e-005
   705	1.69741e-005
   706	1.69501e-005
   707	1.69262e-005
   708	1.69024e-005
   709	1.68786e-005
   710	1.68549e-005
   711	1.68312e-005
   712	1.68077e-005
   713	1.67842e-005
   714	1.67607e-005
   715	1.67373e-005
   716	1.6714e-005
   717	1.66908e-005
   718	1.66676e-005
   719	1.66445e-005
   720	1.66214e-005
   721	1.65984e-005
   722	1.65755e-005
   723	1.65527e-005
   724	1.65298e-005
   725	1.65071e-005
   726	1.64844e-005
   727	1.64618e-005
   728	1.64393e-005
   729	1.64168e-005
   730	1.63944e-005
   731	1.6372e-005
   732	1.63497e-005
   733	1.63274e-005
   734	1.63053e-005
   735	1.62831e-005
   736	1.62611e-005
   737	1.62391e-005
   738	1.62171e-005
   739	1.61952e-005
   740	1.61734e-005
   741	1.61516e-005
   742	1.61299e-005
   743	1.61083e-005
   744	1.60867e-005
   745	1.60651e-005
   746	1.60437e-005
   747	1.60222e-005
   748	1.60009e-005
   749	1.59796e-005
   750	1.59583e-005
   751	1.59371e-005
   752	1.5916e-005
   753	1.58949e-005
   754	1.58739e-005
   755	1.58529e-005
   756	1.5832e-005
   757	1.58111e-005
   758	1.57903e-005
   759	1.57696e-005
   760	1.57489e-005
   761	1.57282e-005
   762	1.57077e-005
   763	1.56871e-005
   764	1.56666e-005
   765	1.56462e-005
   766	1.56258e-005
   767	1.56055e-005
   768	1.55852e-005
   769	1.5565e-005
   770	1.55449e-005
   771	1.55248e-005
   772	1.55047e-005
   773	1.54847e-005
   774	1.54647e-005
   775	1.54448e-005
   776	1.5425e-005
   777	1.54052e-005
   778	1.53854e-005
   779	1.53657e-005
   780	1.53461e-005
   781	1.53265e-005
   782	1.53069e-005
   783	1.52874e-005
   784	1.5268e-005
   785	1.52486e-005
   786	1.52292e-005
   787	1.52099e-005
   788	1.51907e-005
   789	1.51715e-005
   790	1.51523e-005
   791	1.51332e-005
   792	1.51141e-005
   793	1.50951e-005
   794	1.50762e-005
   795	1.50572e-005
   796	1.50384e-005
   797	1.50196e-005
   798	1.50008e-005
   799	1.4982e-005
   800	1.49634e-005
   801	1.49447e-005
   802	1.49261e-005
   803	1.49076e-005
   804	1.48891e-005
   805	1.48707e-005
   806	1.48522e-005
   807	1.48339e-005
   808	1.48156e-005
   809	1.47973e-005
   810	1.47791e-005
   811	1.47609e-005
   812	1.47428e-005
   813	1.47247e-005
   814	1.47066e-005
   815	1.46886e-005
   816	1.46707e-005
   817	1.46528e-005
   818	1.46349e-005
   819	1.46171e-005
   820	1.45993e-005
   821	1.45815e-005
   822	1.45638e-005
   823	1.45462e-005
   824	1.45286e-005
   825	1.4511e-005
   826	1.44935e-005
   827	1.4476e-005
   828	1.44586e-005
   829	1.44412e-005
   830	1.44238e-005
   831	1.44065e-005
   832	1.43892e-005
   833	1.4372e-005
   834	1.43548e-005
   835	1.43376e-005
   836	1.43205e-005
   837	1.43035e-005
   838	1.42864e-005
   839	1.42694e-005
   840	1.42525e-005
   841	1.42356e-005
   842	1.42187e-005
   843	1.42019e-005
   844	1.41851e-005
   845	1.41683e-005
   846	1.41516e-005
   847	1.4135e-005
   848	1.41183e-005
   849	1.41017e-005
   850	1.40852e-005
   851	1.40687e-005
   852	1.40522e-005
   853	1.40358e-005
   854	1.40194e-005
   855	1.4003e-005
   856	1.39867e-005
   857	1.39704e-005
   858	1.39542e-005
   859	1.3938e-005
   860	1.39218e-005
   861	1.39057e-005
   862	1.38896e-005
   863	1.38735e-005
   864	1.38575e-005
   865	1.38415e-005
   866	1.38256e-005
   867	1.38096e-005
   868	1.37938e-005
   869	1.37779e-005
   870	1.37621e-005
   871	1.37464e-005
   872	1.37306e-005
   873	1.37149e-005
   874	1.36993e-005
   875	1.36837e-005
   876	1.36681e-005
   877	1.36525e-005
   878	1.3637e-005
   879	1.36215e-005
   880	1.36061e-005
   881	1.35907e-005
   882	1.35753e-005
   883	1.356e-005
   884	1.35447e-005
   885	1.35294e-005
   886	1.35142e-005
   887	1.3499e-005
   888	1.34838e-005
   889	1.34686e-005
   890	1.34535e-005
   891	1.34385e-005
   892	1.34235e-005
   893	1.34085e-005
   894	1.33935e-005
   895	1.33786e-005
   896	1.33637e-005
   897	1.33488e-005
   898	1.3334e-005
   899	1.33192e-005
   900	1.33044e-005
   901	1.32897e-005
   902	1.3275e-005
   903	1.32603e-005
   904	1.32456e-005
   905	1.3231e-005
   906	1.32165e-005
   907	1.32019e-005
   908	1.31874e-005
   909	1.31729e-005
   910	1.31585e-005
   911	1.31441e-005
   912	1.31297e-005
   913	1.31154e-005
   914	1.3101e-005
   915	1.30868e-005
   916	1.30725e-005
   917	1.30583e-005
   918	1.30441e-005
   919	1.30299e-005
   920	1.30158e-005
   921	1.30017e-005
   922	1.29876e-005
   923	1.29736e-005
   924	1.29596e-005
   925	1.29456e-005
   926	1.29316e-005
   927	1.29177e-005
   928	1.29038e-005
   929	1.289e-005
   930	1.28761e-005
   931	1.28623e-005
   932	1.28485e-005
   933	1.28348e-005
   934	1.28211e-005
   935	1.28074e-005
   936	1.27938e-005
   937	1.27801e-005
   938	1.27665e-005
   939	1.2753e-005
   940	1.27394e-005
   941	1.27259e-005
   942	1.27124e-005
   943	1.2699e-005
   944	1.26856e-005
   945	1.26722e-005
   946	1.26588e-005
   947	1.26455e-005
   948	1.26321e-005
   949	1.26189e-005
   950	1.26056e-005
   951	1.25924e-005
   952	1.25792e-005
   953	1.2566e-005
   954	1.25529e-005
   955	1.25397e-005
   956	1.25267e-005
   957	1.25136e-005
   958	1.25006e-005
   959	1.24875e-005
   960	1.24746e-005
   961	1.24616e-005
   962	1.24487e-005
   963	1.24358e-005
   964	1.24229e-005
   965	1.24101e-005
   966	1.23972e-005
   967	1.23844e-005
   968	1.23717e-005
   969	1.23589e-005
   970	1.23462e-005
   971	1.23335e-005
   972	1.23209e-005
   973	1.23082e-005
   974	1.22956e-005
   975	1.2283e-005
   976	1.22705e-005
   977	1.22579e-005
   978	1.22454e-005
   979	1.22329e-005
   980	1.22205e-005
   981	1.22081e-005
   982	1.21957e-005
   983	1.21833e-005
   984	1.21709e-005
   985	1.21586e-005
   986	1.21463e-005
   987	1.2134e-005
   988	1.21217e-005
   989	1.21095e-005
   990	1.20973e-005
   991	1.20851e-005
   992	1.2073e-005
   993	1.20608e-005
   994	1.20487e-005
   995	1.20366e-005
   996	1.20246e-005
   997	1.20125e-005
   998	1.20005e-005
   999	1.19885e-005
  1000	1.19766e-005

Measurement: vin
  step	v(d)
     1	1.07212
     2	0.951695
     3	0.838256
     4	0.731483
     5	0.631295
     6	0.538054
     7	0.453082
     8	0.379519
     9	0.321477
    10	0.278863
    11	0.247206
    12	0.222599
    13	0.202737
    14	0.186273
    15	0.172356
    16	0.160415
    17	0.150046
    18	0.140951
    19	0.132904
    20	0.125733
    21	0.119301
    22	0.113497
    23	0.108234
    24	0.103439
    25	0.0990514
    26	0.0950221
    27	0.0913085
    28	0.0878746
    29	0.0846901
    30	0.0817287
    31	0.0789676
    32	0.0763871
    33	0.0739702
    34	0.0717016
    35	0.0695682
    36	0.0675581
    37	0.065661
    38	0.0638677
    39	0.0621697
    40	0.0605597
    41	0.0590311
    42	0.0575777
    43	0.0561943
    44	0.0548758
    45	0.0536178
    46	0.0524161
    47	0.0512672
    48	0.0501676
    49	0.0491142
    50	0.0481041
    51	0.0471347
    52	0.0462037
    53	0.0453087
    54	0.0444478
    55	0.043619
    56	0.0428205
    57	0.0420507
    58	0.0413082
    59	0.0405914
    60	0.039899
    61	0.0392299
    62	0.0385829
    63	0.0379569
    64	0.0373508
    65	0.0367638
    66	0.036195
    67	0.0356435
    68	0.0351086
    69	0.0345895
    70	0.0340855
    71	0.0335961
    72	0.0331204
    73	0.0326581
    74	0.0322085
    75	0.031771
    76	0.0313454
    77	0.0309309
    78	0.0305273
    79	0.0301341
    80	0.0297509
    81	0.0293773
    82	0.029013
    83	0.0286576
    84	0.0283109
    85	0.0279724
    86	0.0276419
    87	0.0273191
    88	0.0270038
    89	0.0266957
    90	0.0263945
    91	0.0261
    92	0.0258121
    93	0.0255304
    94	0.0252548
    95	0.0249851
    96	0.0247211
    97	0.0244627
    98	0.0242095
    99	0.0239616
   100	0.0237187
   101	0.0234806
   102	0.0232473
   103	0.0230186
   104	0.0227944
   105	0.0225744
   106	0.0223587
   107	0.0221471
   108	0.0219394
   109	0.0217356
   110	0.0215355
   111	0.0213391
   112	0.0211462
   113	0.0209568
   114	0.0207708
   115	0.020588
   116	0.0204084
   117	0.020232
   118	0.0200585
   119	0.019888
   120	0.0197204
   121	0.0195556
   122	0.0193935
   123	0.0192341
   124	0.0190772
   125	0.018923
   126	0.0187711
   127	0.0186218
   128	0.0184747
   129	0.01833
   130	0.0181875
   131	0.0180472
   132	0.0179091
   133	0.0177731
   134	0.0176391
   135	0.0175071
   136	0.0173771
   137	0.017249
   138	0.0171227
   139	0.0169984
   140	0.0168758
   141	0.0167549
   142	0.0166358
   143	0.0165183
   144	0.0164026
   145	0.0162884
   146	0.0161758
   147	0.0160647
   148	0.0159552
   149	0.0158471
   150	0.0157405
   151	0.0156353
   152	0.0155315
   153	0.0154291
   154	0.0153281
   155	0.0152283
   156	0.0151298
   157	0.0150326
   158	0.0149367
   159	0.0148419
   160	0.0147484
   161	0.014656
   162	0.0145648
   163	0.0144747
   164	0.0143857
   165	0.0142978
   166	0.014211
   167	0.0141252
   168	0.0140404
   169	0.0139567
   170	0.0138739
   171	0.0137922
   172	0.0137113
   173	0.0136315
   174	0.0135525
   175	0.0134745
   176	0.0133973
   177	0.0133211
   178	0.0132456
   179	0.0131711
   180	0.0130974
   181	0.0130245
   182	0.0129524
   183	0.0128811
   184	0.0128106
   185	0.0127408
   186	0.0126718
   187	0.0126036
   188	0.012536
   189	0.0124692
   190	0.0124031
   191	0.0123378
   192	0.012273
   193	0.012209
   194	0.0121456
   195	0.0120829
   196	0.0120209
   197	0.0119594
   198	0.0118986
   199	0.0118384
   200	0.0117788
   201	0.0117198
   202	0.0116614
   203	0.0116036
   204	0.0115463
   205	0.0114897
   206	0.0114335
   207	0.0113779
   208	0.0113229
   209	0.0112683
   210	0.0112143
   211	0.0111609
   212	0.0111079
   213	0.0110554
   214	0.0110034
   215	0.0109519
   216	0.0109009
   217	0.0108504
   218	0.0108003
   219	0.0107507
   220	0.0107015
   221	0.0106528
   222	0.0106045
   223	0.0105567
   224	0.0105093
   225	0.0104623
   226	0.0104157
   227	0.0103696
   228	0.0103238
   229	0.0102785
   230	0.0102335
   231	0.010189
   232	0.0101448
   233	0.010101
   234	0.0100576
   235	0.0100146
   236	0.00997188
   237	0.00992957
   238	0.00988761
   239	0.00984601
   240	0.00980476
   241	0.00976385
   242	0.00972328
   243	0.00968305
   244	0.00964315
   245	0.00960358
   246	0.00956433
   247	0.0095254
   248	0.00948678
   249	0.00944848
   250	0.00941048
   251	0.00937279
   252	0.0093354
   253	0.00929831
   254	0.00926151
   255	0.00922501
   256	0.00918878
   257	0.00915285
   258	0.00911719
   259	0.00908181
   260	0.0090467
   261	0.00901186
   262	0.00897729
   263	0.00894298
   264	0.00890894
   265	0.00887515
   266	0.00884162
   267	0.00880834
   268	0.00877532
   269	0.00874253
   270	0.00871
   271	0.0086777
   272	0.00864564
   273	0.00861382
   274	0.00858223
   275	0.00855087
   276	0.00851974
   277	0.00848884
   278	0.00845816
   279	0.0084277
   280	0.00839746
   281	0.00836744
   282	0.00833763
   283	0.00830803
   284	0.00827864
   285	0.00824946
   286	0.00822048
   287	0.00819171
   288	0.00816313
   289	0.00813476
   290	0.00810658
   291	0.0080786
   292	0.00805081
   293	0.00802321
   294	0.0079958
   295	0.00796857
   296	0.00794153
   297	0.00791467
   298	0.007888
   299	0.0078615
   300	0.00783518
   301	0.00780904
   302	0.00778307
   303	0.00775727
   304	0.00773164
   305	0.00770619
   306	0.00768089
   307	0.00765577
   308	0.00763081
   309	0.00760601
   310	0.00758137
   311	0.00755689
   312	0.00753257
   313	0.0075084
   314	0.00748439
   315	0.00746053
   316	0.00743683
   317	0.00741327
   318	0.00738986
   319	0.0073666
   320	0.00734349
   321	0.00732052
   322	0.00729769
   323	0.00727501
   324	0.00725246
   325	0.00723006
   326	0.00720779
   327	0.00718566
   328	0.00716367
   329	0.00714181
   330	0.00712008
   331	0.00709849
   332	0.00707702
   333	0.00705569
   334	0.00703448
   335	0.0070134
   336	0.00699245
   337	0.00697162
   338	0.00695091
   339	0.00693033
   340	0.00690987
   341	0.00688953
   342	0.00686931
   343	0.00684921
   344	0.00682922
   345	0.00680935
   346	0.0067896
   347	0.00676996
   348	0.00675043
   349	0.00673102
   350	0.00671172
   351	0.00669253
   352	0.00667344
   353	0.00665447
   354	0.0066356
   355	0.00661684
   356	0.00659819
   357	0.00657964
   358	0.0065612
   359	0.00654285
   360	0.00652462
   361	0.00650648
   362	0.00648844
   363	0.0064705
   364	0.00645266
   365	0.00643492
   366	0.00641728
   367	0.00639973
   368	0.00638228
   369	0.00636493
   370	0.00634766
   371	0.0063305
   372	0.00631342
   373	0.00629644
   374	0.00627954
   375	0.00626274
   376	0.00624603
   377	0.0062294
   378	0.00621287
   379	0.00619642
   380	0.00618006
   381	0.00616378
   382	0.00614759
   383	0.00613149
   384	0.00611547
   385	0.00609953
   386	0.00608368
   387	0.00606791
   388	0.00605222
   389	0.00603661
   390	0.00602108
   391	0.00600563
   392	0.00599026
   393	0.00597497
   394	0.00595975
   395	0.00594462
   396	0.00592956
   397	0.00591457
   398	0.00589967
   399	0.00588483
   400	0.00587007
   401	0.00585539
   402	0.00584078
   403	0.00582624
   404	0.00581177
   405	0.00579738
   406	0.00578305
   407	0.0057688
   408	0.00575462
   409	0.00574051
   410	0.00572646
   411	0.00571249
   412	0.00569858
   413	0.00568474
   414	0.00567097
   415	0.00565726
   416	0.00564362
   417	0.00563004
   418	0.00561653
   419	0.00560309
   420	0.00558971
   421	0.00557639
   422	0.00556314
   423	0.00554995
   424	0.00553682
   425	0.00552375
   426	0.00551075
   427	0.00549781
   428	0.00548492
   429	0.0054721
   430	0.00545934
   431	0.00544663
   432	0.00543399
   433	0.0054214
   434	0.00540888
   435	0.00539641
   436	0.00538399
   437	0.00537164
   438	0.00535934
   439	0.0053471
   440	0.00533491
   441	0.00532278
   442	0.0053107
   443	0.00529868
   444	0.00528671
   445	0.0052748
   446	0.00526294
   447	0.00525113
   448	0.00523938
   449	0.00522768
   450	0.00521603
   451	0.00520443
   452	0.00519289
   453	0.00518139
   454	0.00516995
   455	0.00515855
   456	0.00514721
   457	0.00513592
   458	0.00512467
   459	0.00511348
   460	0.00510233
   461	0.00509123
   462	0.00508019
   463	0.00506918
   464	0.00505823
   465	0.00504732
   466	0.00503646
   467	0.00502565
   468	0.00501488
   469	0.00500416
   470	0.00499349
   471	0.00498286
   472	0.00497227
   473	0.00496173
   474	0.00495124
   475	0.00494079
   476	0.00493038
   477	0.00492002
   478	0.0049097
   479	0.00489942
   480	0.00488919
   481	0.004879
   482	0.00486885
   483	0.00485875
   484	0.00484868
   485	0.00483866
   486	0.00482868
   487	0.00481874
   488	0.00480884
   489	0.00479898
   490	0.00478916
   491	0.00477939
   492	0.00476965
   493	0.00475995
   494	0.00475029
   495	0.00474067
   496	0.00473109
   497	0.00472155
   498	0.00471204
   499	0.00470258
   500	0.00469315
   501	0.00468376
   502	0.0046744
   503	0.00466509
   504	0.00465581
   505	0.00464657
   506	0.00463736
   507	0.0046282
   508	0.00461906
   509	0.00460997
   510	0.00460091
   511	0.00459188
   512	0.00458289
   513	0.00457394
   514	0.00456502
   515	0.00455613
   516	0.00454728
   517	0.00453847
   518	0.00452969
   519	0.00452094
   520	0.00451222
   521	0.00450354
   522	0.0044949
   523	0.00448628
   524	0.0044777
   525	0.00446915
   526	0.00446064
   527	0.00445215
   528	0.0044437
   529	0.00443528
   530	0.0044269
   531	0.00441854
   532	0.00441022
   533	0.00440192
   534	0.00439366
   535	0.00438543
   536	0.00437723
   537	0.00436906
   538	0.00436092
   539	0.00435281
   540	0.00434474
   541	0.00433669
   542	0.00432867
   543	0.00432068
   544	0.00431272
   545	0.00430479
   546	0.00429689
   547	0.00428901
   548	0.00428117
   549	0.00427336
   550	0.00426557
   551	0.00425781
   552	0.00425008
   553	0.00424238
   554	0.00423471
   555	0.00422706
   556	0.00421944
   557	0.00421185
   558	0.00420429
   559	0.00419675
   560	0.00418924
   561	0.00418176
   562	0.0041743
   563	0.00416687
   564	0.00415947
   565	0.00415209
   566	0.00414474
   567	0.00413741
   568	0.00413011
   569	0.00412284
   570	0.00411559
   571	0.00410837
   572	0.00410117
   573	0.004094
   574	0.00408685
   575	0.00407973
   576	0.00407264
   577	0.00406556
   578	0.00405851
   579	0.00405149
   580	0.00404449
   581	0.00403752
   582	0.00403057
   583	0.00402364
   584	0.00401674
   585	0.00400986
   586	0.004003
   587	0.00399617
   588	0.00398936
   589	0.00398257
   590	0.00397581
   591	0.00396907
   592	0.00396235
   593	0.00395565
   594	0.00394898
   595	0.00394233
   596	0.0039357
   597	0.0039291
   598	0.00392252
   599	0.00391596
   600	0.00390942
   601	0.0039029
   602	0.0038964
   603	0.00388993
   604	0.00388348
   605	0.00387705
   606	0.00387064
   607	0.00386425
   608	0.00385788
   609	0.00385153
   610	0.00384521
   611	0.0038389
   612	0.00383262
   613	0.00382635
   614	0.00382011
   615	0.00381389
   616	0.00380769
   617	0.0038015
   618	0.00379534
   619	0.0037892
   620	0.00378307
   621	0.00377697
   622	0.00377089
   623	0.00376482
   624	0.00375878
   625	0.00375276
   626	0.00374675
   627	0.00374076
   628	0.0037348
   629	0.00372885
   630	0.00372292
   631	0.00371701
   632	0.00371112
   633	0.00370524
   634	0.00369939
   635	0.00369355
   636	0.00368773
   637	0.00368194
   638	0.00367615
   639	0.00367039
   640	0.00366465
   641	0.00365892
   642	0.00365321
   643	0.00364752
   644	0.00364184
   645	0.00363619
   646	0.00363055
   647	0.00362493
   648	0.00361933
   649	0.00361374
   650	0.00360817
   651	0.00360262
   652	0.00359708
   653	0.00359157
   654	0.00358606
   655	0.00358058
   656	0.00357511
   657	0.00356966
   658	0.00356423
   659	0.00355881
   660	0.00355341
   661	0.00354802
   662	0.00354266
   663	0.0035373
   664	0.00353197
   665	0.00352665
   666	0.00352134
   667	0.00351606
   668	0.00351078
   669	0.00350553
   670	0.00350029
   671	0.00349506
   672	0.00348985
   673	0.00348466
   674	0.00347948
   675	0.00347432
   676	0.00346917
   677	0.00346404
   678	0.00345892
   679	0.00345382
   680	0.00344873
   681	0.00344366
   682	0.0034386
   683	0.00343356
   684	0.00342853
   685	0.00342352
   686	0.00341852
   687	0.00341353
   688	0.00340856
   689	0.00340361
   690	0.00339867
   691	0.00339374
   692	0.00338883
   693	0.00338393
   694	0.00337905
   695	0.00337418
   696	0.00336933
   697	0.00336448
   698	0.00335966
   699	0.00335484
   700	0.00335004
   701	0.00334526
   702	0.00334048
   703	0.00333572
   704	0.00333098
   705	0.00332625
   706	0.00332153
   707	0.00331682
   708	0.00331213
   709	0.00330745
   710	0.00330279
   711	0.00329814
   712	0.0032935
   713	0.00328887
   714	0.00328426
   715	0.00327966
   716	0.00327507
   717	0.0032705
   718	0.00326593
   719	0.00326139
   720	0.00325685
   721	0.00325233
   722	0.00324781
   723	0.00324332
   724	0.00323883
   725	0.00323436
   726	0.00322989
   727	0.00322544
   728	0.00322101
   729	0.00321658
   730	0.00321217
   731	0.00320777
   732	0.00320338
   733	0.00319901
   734	0.00319464
   735	0.00319029
   736	0.00318595
   737	0.00318162
   738	0.0031773
   739	0.003173
   740	0.0031687
   741	0.00316442
   742	0.00316015
   743	0.00315589
   744	0.00315164
   745	0.00314741
   746	0.00314318
   747	0.00313897
   748	0.00313476
   749	0.00313057
   750	0.00312639
   751	0.00312223
   752	0.00311807
   753	0.00311392
   754	0.00310979
   755	0.00310566
   756	0.00310155
   757	0.00309745
   758	0.00309335
   759	0.00308927
   760	0.0030852
   761	0.00308114
   762	0.00307709
   763	0.00307306
   764	0.00306903
   765	0.00306501
   766	0.003061
   767	0.00305701
   768	0.00305302
   769	0.00304905
   770	0.00304508
   771	0.00304113
   772	0.00303718
   773	0.00303325
   774	0.00302932
   775	0.00302541
   776	0.00302151
   777	0.00301761
   778	0.00301373
   779	0.00300986
   780	0.00300599
   781	0.00300214
   782	0.00299829
   783	0.00299446
   784	0.00299064
   785	0.00298682
   786	0.00298302
   787	0.00297922
   788	0.00297544
   789	0.00297166
   790	0.00296789
   791	0.00296414
   792	0.00296039
   793	0.00295665
   794	0.00295292
   795	0.0029492
   796	0.00294549
   797	0.00294179
   798	0.0029381
   799	0.00293442
   800	0.00293075
   801	0.00292709
   802	0.00292343
   803	0.00291979
   804	0.00291615
   805	0.00291252
   806	0.00290891
   807	0.0029053
   808	0.0029017
   809	0.00289811
   810	0.00289452
   811	0.00289095
   812	0.00288739
   813	0.00288383
   814	0.00288028
   815	0.00287674
   816	0.00287321
   817	0.00286969
   818	0.00286618
   819	0.00286268
   820	0.00285918
   821	0.0028557
   822	0.00285222
   823	0.00284875
   824	0.00284529
   825	0.00284183
   826	0.00283839
   827	0.00283495
   828	0.00283153
   829	0.00282811
   830	0.0028247
   831	0.00282129
   832	0.0028179
   833	0.00281451
   834	0.00281113
   835	0.00280776
   836	0.0028044
   837	0.00280104
   838	0.0027977
   839	0.00279436
   840	0.00279103
   841	0.00278771
   842	0.00278439
   843	0.00278109
   844	0.00277779
   845	0.0027745
   846	0.00277121
   847	0.00276794
   848	0.00276467
   849	0.00276141
   850	0.00275816
   851	0.00275491
   852	0.00275168
   853	0.00274845
   854	0.00274523
   855	0.00274201
   856	0.0027388
   857	0.0027356
   858	0.00273241
   859	0.00272923
   860	0.00272605
   861	0.00272288
   862	0.00271972
   863	0.00271657
   864	0.00271342
   865	0.00271028
   866	0.00270714
   867	0.00270402
   868	0.0027009
   869	0.00269779
   870	0.00269468
   871	0.00269159
   872	0.0026885
   873	0.00268541
   874	0.00268234
   875	0.00267927
   876	0.00267621
   877	0.00267315
   878	0.00267011
   879	0.00266707
   880	0.00266403
   881	0.002661
   882	0.00265798
   883	0.00265497
   884	0.00265197
   885	0.00264897
   886	0.00264597
   887	0.00264299
   888	0.00264001
   889	0.00263703
   890	0.00263407
   891	0.00263111
   892	0.00262816
   893	0.00262521
   894	0.00262227
   895	0.00261934
   896	0.00261641
   897	0.00261349
   898	0.00261058
   899	0.00260767
   900	0.00260477
   901	0.00260188
   902	0.00259899
   903	0.00259611
   904	0.00259324
   905	0.00259037
   906	0.00258751
   907	0.00258465
   908	0.0025818
   909	0.00257896
   910	0.00257612
   911	0.00257329
   912	0.00257047
   913	0.00256765
   914	0.00256484
   915	0.00256203
   916	0.00255923
   917	0.00255644
   918	0.00255365
   919	0.00255087
   920	0.00254809
   921	0.00254532
   922	0.00254256
   923	0.0025398
   924	0.00253705
   925	0.00253431
   926	0.00253157
   927	0.00252883
   928	0.00252611
   929	0.00252338
   930	0.00252067
   931	0.00251796
   932	0.00251526
   933	0.00251256
   934	0.00250986
   935	0.00250718
   936	0.0025045
   937	0.00250182
   938	0.00249915
   939	0.00249649
   940	0.00249383
   941	0.00249118
   942	0.00248853
   943	0.00248589
   944	0.00248325
   945	0.00248062
   946	0.002478
   947	0.00247538
   948	0.00247277
   949	0.00247016
   950	0.00246756
   951	0.00246496
   952	0.00246237
   953	0.00245978
   954	0.0024572
   955	0.00245463
   956	0.00245206
   957	0.00244949
   958	0.00244693
   959	0.00244438
   960	0.00244183
   961	0.00243929
   962	0.00243675
   963	0.00243422
   964	0.00243169
   965	0.00242917
   966	0.00242665
   967	0.00242414
   968	0.00242163
   969	0.00241913
   970	0.00241664
   971	0.00241414
   972	0.00241166
   973	0.00240918
   974	0.0024067
   975	0.00240423
   976	0.00240177
   977	0.00239931
   978	0.00239685
   979	0.0023944
   980	0.00239196
   981	0.00238952
   982	0.00238708
   983	0.00238465
   984	0.00238222
   985	0.0023798
   986	0.00237739
   987	0.00237498
   988	0.00237257
   989	0.00237017
   990	0.00236778
   991	0.00236538
   992	0.002363
   993	0.00236062
   994	0.00235824
   995	0.00235587
   996	0.0023535
   997	0.00235114
   998	0.00234878
   999	0.00234643
  1000	0.00234408


Date: Sat Aug 08 14:57:41 2020
Total elapsed time: 70.094 seconds.

tnom = 27
temp = 27
method = modified trap
totiter = 2090
traniter = 2082
tranpoints = 1042
accept = 1042
rejected = 0
matrix size = 9
fillins = 0
solver = Normal
Matrix Compiler1: 492 bytes object code size  0.2/0.1/[0.0]
Matrix Compiler2: 735 bytes object code size  0.1/0.2/[0.1]

